VI1 1 0 PWL(0ps 0mV 10ps 0mV 30ps 0mV 31ps 1.034mV 32ps 1.034mV 33ps 0mV)
VI2 2 0 PWL(0ps 0mV 10ps 0mV 30ps 0mV 31ps 1.034mV 32ps 1.034mV 33ps 0mV)
VI3 3 0 PWL(0ps 0mV 10ps 0mV 30ps 0mV 31ps 1.034mV 32ps 1.034mV 33ps 0mV)
VI4 4 0 PWL(0ps 0mV 10ps 0mV 30ps 0mV 31ps 1.034mV 32ps 1.034mV 33ps 0mV)
VI5 5 0 PWL(0ps 0mV 10ps 0mV 30ps 0mV 31ps 1.034mV 32ps 1.034mV 33ps 0mV)
VF1 6 0 PWL(0ps 0mV 10ps 0mV 70ps 0mV 71ps 1.034mV 72ps 1.034mV 73ps 0mV)
VF2 7 0 PWL(0ps 0mV 10ps 0mV 70ps 0mV 71ps 1.034mV 72ps 1.034mV 73ps 0mV)
VF3 8 0 PWL(0ps 0mV 10ps 0mV 70ps 0mV 71ps 1.034mV 72ps 1.034mV 73ps 0mV)
VF4 9 0 PWL(0ps 0mV 10ps 0mV 70ps 0mV 71ps 1.034mV 72ps 1.034mV 73ps 0mV)
VF5 10 0 PWL(0ps 0mV 10ps 0mV 70ps 0mV 71ps 1.034mV 72ps 1.034mV 73ps 0mV)

.model jjmitll100 JJ(RTYPE=1, VG=2.8mV, CAP=0.07pF, R0=160ohm, RN=16ohm, ICRIT=0.1mA)

.subckt JTL_input 1 6
L1     1   2  4pH
L2     2   3  10pH
L3     3   4  10pH
L4     4   5  10pH
L5     5   6  4pH
B1  2  0     jjmitll100 area=1
RB1 2  0   9.7
B2  3   0   jjmitll100 area=2
RB2 3   0   4.35
B3  4   0   jjmitll100 area=2
RB3 4   0   4.35
B4  5   0   jjmitll100 area=1.3
RB4 5   0   7.46
IB1 0 2  pwl(0 0 5p 130uA)
IB2 0 3  pwl(0 0 5p 140uA)
IB3 0 4  pwl(0 0 5p 140uA)
IB4 0 5  pwl(0 0 5p 90uA)
.ends JTL_input

.subckt JTL 1 3
B1 2 101 JJMITLL100 AREA=1.30
RB1 2 101 7.46
L1 1 2 2.01547pH
L2 2 3 2.07196pH
LJ1 101 0 0.62956pH
LIB1 111 2 0.24330pH
IB1 0 111 PWL(0 0 5P 90uA)
.ends

.SUBCKT XOR2_tl 1 2 10 12 
L1  1     3     4.1pH
L2  2     4     3.81pH
L3  5     7     8.96pH
L4  6     7     7.81pH
L5  8     11    8.93pH
L6  9     10    4.58pH
L7  11    12    4.13pH
LJ1    101   0   1.57pH
LJ2    102   0   1.36pH
LJ3    103   5   1.71pH
LJ4    104   6   1.17pH
LJ5    105   8   1.53pH
*LJ6    8     106 0pH
LJ7    107  0   1.59pH
LJ8    108  0   1.29pH
LIB1  111   4   0.21pH
LIB2  112   3   0.19pH
LIB3  113   5   1.57pH
LIB4  114   6   1.54pH
LIB5  115   11  0.62pH
B1      3     101     jjmitll100 area=1.43
RB1     3     101     6.78
B2      4     102     jjmitll100 area=1.43
RB2     4     102     6.78
B3      4     103     jjmitll100 area=1.08
RB3     4     103     8.98
B4      3     104     jjmitll100 area=1.08
RB4     3     104     8.98
B5      7     105     jjmitll100 area=1.35
RB5     7     105     7.185
B6      8     9       jjmitll100 area=1.01
RB6     8     9       9.604
B7      8     107     jjmitll100 area=1.22
RB7     8     107     7.95
B8      11    108     jjmitll100 area=2.00
RB8     11    108     4.85
RB10 1000 111  45.45
RB11 1000 112  41.67
RB12 1000 113  31.25
RB13 1000 114  31.25
RB15 1000 115  15.625
VB  1000 0  pwl(0 0 5p 2.5mV)
.ends XOR2_tl

.SUBCKT JTL2 1 3
B1   2  101  jjmitll100 area=1.30
RB1  2  101  7.46
B2   3  102  jjmitll100 area=1.30
RB2  3  102  7.46
L1   1  2  8pH
L2   2  3  4pH
LJ1  101 0 1.5pH
LJ2  102 0 1.5pH
LIB1 111 2 0.7pH
LIB2 112 3 0.7pH
IB1  0  111  pwl(0 0 5p 90uA)
IB2  0  112  pwl(0 0 5p 90uA)
.ends JTL2

.SUBCKT INV_tl 1 2 12
L1   1     3    3.81pH
L2   2     4    3.82pH
L3   3     5    4.29pH
L4   4     11   3.97pH
L5   6     7    10.34pH
L6   8     9    4.06pH
L7   9    10    3.97pH
L8   10   12    3.99pH
B1   3    101     jjmitll100 area=1.8
RB1  3    101     5.3
LJ1  101   0      0.45pH
B2   4    102     jjmitll100 area=1.5
RB2  4    102     6.46
LJ2  102   0      0.5pH
B3   5      7       jjmitll100 area=1.3
RB3  5      7       7.46 
B4   7      8       jjmitll100 area=0.8
RB4  7      8       12 
B5   6      8       jjmitll100 area=1.69
RB5  6      8       5.7
B6   8     106       jjmitll100 area=1
RB6  8     106       9.6
LJ6  106    0       1.81pH
B7   9    107     jjmitll100 area=1.5
RB7  9    107     6.4
LJ7  107   0      0.46pH
B8   11   108     jjmitll100 area=1.69
RB8  11    108     5.7
LJ8  108   6      3.97pH
B9   10   109    jjmitll100 area=1.69
RB9  10   109     5.7
LJ9  109  0     0.5pH 
LIB1 999    3   0.15pH
LIB2 1010   4   0.34pH
LIB3 1111   7   1.36pH
LIB4 1112   9   0.25pH
LIB5 1113   10  0.26pH
* Bias source 2.5mV and 7.41 Ohm
RB10 1000 999  32.47*16.89
RB11 1000 1010 25.25*20.83
RB12 1000 1111 16.89*32.47
RB13 1000 1112 20.83*25.25 
RB14 1000 1113 24.51
VB  1000 0  pwl(0 0 5p 2.5mV)  
.ends INV_tl

.subckt Merger 1 2 10
L1   5      7        1.55pH
L2   6      7        2.35pH
L3   1      3        3.91pH
L4   2      4        3.9pH
L5   7      8        5.61pH
L6   9      10       4pH
LJ1    101   0   0.34p
LJ2    102   0   0.4p
*LJ5    105   9   1.6p
LJ6    106   0   0.45p
LIB1  111   7 0.53p
LIB2  112   9 0.27p
LIB4  114   3 0.45p
LIB5  115   4 1.93p
B1  3   101   jjmitll100 area=1.7 
RB1 3   101  5.65
B2  4   102   jjmitll100 area=1.65
RB2 4   102  5.82
B3  3   5  jjmitll100 area=1.08
RB3 3   5  8.98 
B4  4   6   jjmitll100 area=1.08
RB4 4   6  8.98 
B5  8   9   jjmitll100 area=0.9
RB5 8   9  10.7 
B6  9   106  jjmitll100 area=1.15
RB6 9   106  8.43 
RIB1 999 111  14.88
RIB2 999 112 23.81
RIB4 999 114 53.19
RIB5 999 115 45.45 
VB  999 0  pwl(0 0 5p 2.5mV)
.ends Merger

.subckt JJAS 1 6
L1 1 2 2pH
B1 2 7 JJMITLL100 AREA=1.60
RB1 2 7 6
LB1 7 0 0.1pH
IB1 0 2 PWL(0 0 5P 60uA)
L2 2 3 18pH *18good
R1 3 4 0.62 *0.7
LPR1 4 5 0.4pH
B2 5 8 JJMITLL100 AREA=1.60
RB2 5 8 6
LB2 8 0 0.1pH
IB2 0 5 PWL(0 0 5P 33uA)
L3 5 6 2pH
.ends

.SUBCKT DFF 1 5 7
L1     1   2   4.12pH
L2     2   3   8.08pH
L3     5   6   4.05pH
L4     3   4   6.47pH
L5     4   7   4.33pH
LJ1    101  0  0.64pH
LJ2    102  0  0.55pH
LJ3    104  0  0.74pH
B1  2   101   jjmitll100 area=1.15
RB1 2   101   8.43
B2  3   102   jjmitll100 area=1.11
RB2 3   102   8.73
B3  3   6     jjmitll100 area=0.8
RB3 3   6     12
B4  4   104   jjmitll100 area=1.30
RB4 4   104   7.46
LIB1    9990   2  0.6p
LIB2    10100  4  0.32p
RB100 10000 9990  24.27
RB101 10000 10100 22.73 
VB  10000 0  pwl(0 0 5p 2.5mV)
.ends DFF

.subckt JTL_L 1 3
B1 2 0 JJMITLL100 AREA=1
RB1 2 0 9.6
B2 3 0 JJMITLL100 AREA=1
RB2 3 0 9.6
L1 1 2 4pH
L2 2 3 4pH
IB1 0 2 PWL(0 0 5P 70uA)
IB2 0 3 PWL(0 0 5P 70uA)
.ends

VCLKXOR1 111 0 PWL(0ps 0mV 10ps 0mV 100ps 0mV 101ps 1.034mV 102ps 1.034mV 103ps 0mV)
XCLKXOR1JTL1 JTL_INPUT 111 112
XCLKXOR1JTL2 JTL2 112 113
VCLKXOR2 211 0 PWL(0ps 0mV 10ps 0mV 100ps 0mV 101ps 1.034mV 102ps 1.034mV 103ps 0mV)
XCLKXOR2JTL1 JTL_INPUT 211 212
XCLKXOR2JTL2 JTL2 212 213
VCLKXOR3 311 0 PWL(0ps 0mV 10ps 0mV 100ps 0mV 101ps 1.034mV 102ps 1.034mV 103ps 0mV)
XCLKXOR3JTL1 JTL_INPUT 311 312
XCLKXOR3JTL2 JTL2 312 313
VCLKXOR4 411 0 PWL(0ps 0mV 10ps 0mV 100ps 0mV 101ps 1.034mV 102ps 1.034mV 103ps 0mV)
XCLKXOR4JTL1 JTL_INPUT 411 412
XCLKXOR4JTL2 JTL2 412 413
VCLKXOR5 511 0 PWL(0ps 0mV 10ps 0mV 100ps 0mV 101ps 1.034mV 102ps 1.034mV 103ps 0mV)
XCLKXOR5JTL1 JTL_INPUT 511 512
XCLKXOR5JTL2 JTL2 512 513

VCLKNOT1 121 0 PWL(0ps 0mV 10ps 0mV 150ps 0mV 151ps 1.034mV 152ps 1.034mV 153ps 0mV)
XCLKNOT1JTL1 JTL_INPUT 121 122
XCLKNOT1JTL2 JTL2 122 123
VCLKNOT2 221 0 PWL(0ps 0mV 10ps 0mV 150ps 0mV 151ps 1.034mV 152ps 1.034mV 153ps 0mV)
XCLKNOT2JTL1 JTL_INPUT 221 222
XCLKNOT2JTL2 JTL2 222 223
VCLKNOT3 321 0 PWL(0ps 0mV 10ps 0mV 150ps 0mV 151ps 1.034mV 152ps 1.034mV 153ps 0mV)
XCLKNOT3JTL1 JTL_INPUT 321 322
XCLKNOT3JTL2 JTL2 322 323
VCLKNOT4 421 0 PWL(0ps 0mV 10ps 0mV 150ps 0mV 151ps 1.034mV 152ps 1.034mV 153ps 0mV)
XCLKNOT4JTL1 JTL_INPUT 421 422
XCLKNOT4JTL2 JTL2 422 423
VCLKNOT5 521 0 PWL(0ps 0mV 10ps 0mV 150ps 0mV 151ps 1.034mV 152ps 1.034mV 153ps 0mV)
XCLKNOT5JTL1 JTL_INPUT 521 522
XCLKNOT5JTL2 JTL2 522 523

VCLKDFF 131 0 PWL(0ps 0mV 10ps 0mV 350ps 0mV 351ps 1.034mV 352ps 1.034mV 353ps 0mV)
XCLKDFFJTL1 JTL_INPUT 131 132
XCLKDFFJTL2 JTL 132 133

XI1 JTL_INPUT 1 11
XI2 JTL_INPUT 2 12
XI3 JTL_INPUT 3 13
XI4 JTL_INPUT 4 14
XI5 JTL_INPUT 5 15

XF1 JTL_INPUT 6 16
XF2 JTL_INPUT 7 17
XF3 JTL_INPUT 8 18
XF4 JTL_INPUT 9 19
XF5 JTL_INPUT 10 20

XJTL1I1 JTL2 11 21
XJTL2I1 JTL2 21 31
XJTL1I2 JTL2 12 22
XJTL2I2 JTL2 22 32
XJTL1I3 JTL2 13 23
XJTL2I3 JTL2 23 33
XJTL1I4 JTL2 14 24
XJTL2I4 JTL2 24 34
XJTL1I5 JTL2 15 25
XJTL2I5 JTL2 25 35

XJTL1F1 JTL2 16 26
XJTL2F1 JTL2 26 36
XJTL1F2 JTL2 17 27
XJTL2F2 JTL2 27 37
XJTL1F3 JTL2 18 28
XJTL2F3 JTL2 28 38
XJTL1F4 JTL2 19 29
XJTL2F4 JTL2 29 39
XJTL1F5 JTL2 20 30
XJTL2F5 JTL2 30 40

XI1F1XOR XOR2_tl 31 36 113 41 
XI2F2XOR XOR2_tl 32 37 213 42 
XI3F3XOR XOR2_tl 33 38 313 43 
XI4F4XOR XOR2_tl 34 39 413 44 
XI5F5XOR XOR2_tl 35 40 513 45 

XJTLXOR1 JTL2 41 46
XJTLXOR2 JTL2 42 47
XJTLXOR3 JTL2 43 48
XJTLXOR4 JTL2 44 49
XJTLXOR5 JTL2 45 50

XNOT1 INV_tl 46 123 51
XNOT2 INV_tl 47 223 52
XNOT3 INV_tl 48 323 53
XNOT4 INV_tl 49 423 54
XNOT5 INV_tl 50 523 55

XJTL1NOT1 JTL2 51 56
XJTL1NOT2 JTL2 52 57
XJTL1NOT3 JTL2 53 58
XJTL1NOT4 JTL2 54 59
XJTL1NOT5 JTL2 55 60

XJTL2NOT2 JTL2 57 61
XJTL2NOT4 JTL2 59 62
XJTL2NOT5 JTL2 60 63

XJTL3NOT2 JTL2 61 64
XJTL3NOT4 JTL2 62 65
XJTL3NOT5 JTL2 63 66

XJTL4NOT2 JTL2 64 67
XJTL4NOT4 JTL2 65 68
XJTL4NOT5 JTL2 66 69

XM12 Merger 56 67 70
XM34 Merger 58 68 71
XM50 JTL2 69 72

XJTL1M1 JTL2 70 73
XJTL1M2 JTL2 71 74
XJTL1M3 JTL2 72 75

XJTL2M2 JTL2 74 76
XJTL2M3 JTL2 75 77
XJTL3M2 JTL2 76 78
XJTL3M3 JTL2 77 79
XJTL4M2 JTL2 78 80
XJTL4M3 JTL2 79 81
XJTL5M2 JTL2 80 82
XJTL5M3 JTL2 81 83
XJTL6M2 JTL2 82 84
XJTL6M3 JTL2 83 85
XJTL7M2 JTL2 84 86
XJTL7M3 JTL2 85 87

XM1234 Merger 73 86 88
XJTL8M3 JTL2 87 89

XJTL1M1234 JTL2 88 90
XJTL9M3 JTL2 89 91

XJTL10M3 JTL2 91 92
XJTL11M3 JTL2 92 93
XJTL12M3 JTL2 93 94
XJTL13M3 JTL2 94 95
XJTL14M3 JTL2 95 96

XM12345 Merger 90 96 97

XJTLM12345 JTL2 97 98

XJTL1M12345INSOMA JTL 98 99
XJTL2M12345INSOMA JTL 99 100
XJTL3M12345INSOMA JTL 100 101

XSOMA JJAS 101 102
XJTL1SOMA JTL 102 103
XJTL2SOMA JTL 103 104
XJTL3SOMA JTL 104 105

XDFF DFF 105 133 106

XJTL1DFF JTL 106 107
XJTL2DFF JTL 107 108

XLOAD JTL_L 108 109

.tran 0.1ps 0.40ns 0.30ns *.tran 0.1ps 0.40ns 0.001ns
.file OUT
*.print devv XJTL1M12345INSOMA_B1
*.print devv XSOMA_B1
*.print devi XSOMA_L3
*.print devv XSOMA_B2
*.print devv XJTL2SOMA_B1
*.print devv XJTL3SOMA_B1
*.print devv XCLKDFFJTL2_B1
.print devv XJTL2DFF_B1
